
FoamFile
{
    version     2.0;
    format      ascii;
    class       dictionary;
    location    "system";
    object      meshingDict;
}
// * * * * * * * * * * * * * * * * * * * * * * * * * * * * * * * * * * * * * //


//! voxelToSurfaceML keywords
headerName subvolume.mhd;
outputSurface  subvolume.vtk;

addLayerToCL
{
	inputSurface   "subvolume.vtk";
	outputSurface   "subvolume_Layered.vtk";
}



surfaceSmoothing
{
	inputSurface   "subvolume_Layered.vtk";
	outputSurface   "subvolume_Layered_Smooth.vtk";

	relaxationFactor   0.5;
	extraRelaxFactorParIntrf   0.2;


	kernelRadiusGaussVP	3;
	nIterationsGaussVP	20;
	relaxFactorGaussVP	0.05;
	relaxFactorGaussVPCL	0.05;



	kernelRadiusCurvature1	12;
	nIterationsCurvature1	100;
	relaxFactorCurvature1	0.05;
	relaxFactorCurvature1CL	0.05;



	kernelRadiusCurvature	12;
	nIterationsCurvature	100;
	relaxFactorCurvature	0.05;
	relaxFactorCurvatureCL	0.05;



	kernelRadiusRoughness	12;

}

surfaceRoughness
{
	inputSurface   "subvolume_Layered.vtk";
	outputSurface   "subvolume_Layered_Smooth_Roughness.vtk";

	//extraRelaxFactorParIntrf   0.2;

	kernelRadiusRoughness	10;
	nIterationsRoughness	200;
	relaxFactorRoughness	0.05;
	relaxFactorRoughnessCL	0.05;
}


// ************************************************************************* //
